data_image0
_chemical_formula_structural       In4Cu4S8In4Cu4S8In4Cu4S8In4Cu4S8
_chemical_formula_sum              "In16 Cu16 S32"
_cell_length_a       11.04080982
_cell_length_b       11.04080982
_cell_length_c       11.12616975
_cell_angle_alpha    90.0
_cell_angle_beta     90.0
_cell_angle_gamma    90.0

_space_group_name_H-M_alt    "P 1"
_space_group_IT_number       1

loop_
  _space_group_symop_operation_xyz
  'x, y, z'

loop_
  _atom_site_type_symbol
  _atom_site_label
  _atom_site_symmetry_multiplicity
  _atom_site_fract_x
  _atom_site_fract_y
  _atom_site_fract_z
  _atom_site_occupancy
  In  In1       1.0  0.24999999999999994  0.24999999999999994  0.0  1.0000
  In  In2       1.0  0.0  0.24999999999999994  0.75  1.0000
  In  In3       1.0  0.0  0.0  0.4999999999999999  1.0000
  In  In4       1.0  0.24999999999999994  0.0  0.25  1.0000
  Cu  Cu1       1.0  0.24999999999999994  0.0  0.75  1.0000
  Cu  Cu2       1.0  0.0  0.0  0.0  1.0000
  Cu  Cu3       1.0  0.0  0.24999999999999994  0.25  1.0000
  Cu  Cu4       1.0  0.24999999999999994  0.24999999999999994  0.4999999999999999  1.0000
  S   S1        1.0  0.139401345  0.12499999999999997  0.625  1.0000
  S   S2        1.0  0.375  0.110598655  0.875  1.0000
  S   S3        1.0  0.3605986549999999  0.375  0.625  1.0000
  S   S4        1.0  0.12499999999999997  0.389401345  0.875  1.0000
  S   S5        1.0  0.389401345  0.375  0.125  1.0000
  S   S6        1.0  0.12499999999999997  0.3605986549999999  0.375  1.0000
  S   S7        1.0  0.110598655  0.12499999999999997  0.125  1.0000
  S   S8        1.0  0.375  0.139401345  0.375  1.0000
  In  In5       1.0  0.24999999999999994  0.75  0.0  1.0000
  In  In6       1.0  0.0  0.75  0.75  1.0000
  In  In7       1.0  0.0  0.4999999999999999  0.4999999999999999  1.0000
  In  In8       1.0  0.24999999999999994  0.4999999999999999  0.25  1.0000
  Cu  Cu5       1.0  0.24999999999999994  0.4999999999999999  0.75  1.0000
  Cu  Cu6       1.0  0.0  0.4999999999999999  0.0  1.0000
  Cu  Cu7       1.0  0.0  0.75  0.25  1.0000
  Cu  Cu8       1.0  0.24999999999999994  0.75  0.4999999999999999  1.0000
  S   S9        1.0  0.139401345  0.625  0.625  1.0000
  S   S10       1.0  0.375  0.6105986549999999  0.875  1.0000
  S   S11       1.0  0.3605986549999999  0.875  0.625  1.0000
  S   S12       1.0  0.12499999999999997  0.8894013449999999  0.875  1.0000
  S   S13       1.0  0.389401345  0.875  0.125  1.0000
  S   S14       1.0  0.12499999999999997  0.8605986549999999  0.375  1.0000
  S   S15       1.0  0.110598655  0.625  0.125  1.0000
  S   S16       1.0  0.375  0.639401345  0.375  1.0000
  In  In9       1.0  0.75  0.24999999999999994  0.0  1.0000
  In  In10      1.0  0.4999999999999999  0.24999999999999994  0.75  1.0000
  In  In11      1.0  0.4999999999999999  0.0  0.4999999999999999  1.0000
  In  In12      1.0  0.75  0.0  0.25  1.0000
  Cu  Cu9       1.0  0.75  0.0  0.75  1.0000
  Cu  Cu10      1.0  0.4999999999999999  0.0  0.0  1.0000
  Cu  Cu11      1.0  0.4999999999999999  0.24999999999999994  0.25  1.0000
  Cu  Cu12      1.0  0.75  0.24999999999999994  0.4999999999999999  1.0000
  S   S17       1.0  0.639401345  0.12499999999999997  0.625  1.0000
  S   S18       1.0  0.875  0.110598655  0.875  1.0000
  S   S19       1.0  0.8605986549999999  0.375  0.625  1.0000
  S   S20       1.0  0.625  0.389401345  0.875  1.0000
  S   S21       1.0  0.8894013449999999  0.375  0.125  1.0000
  S   S22       1.0  0.625  0.3605986549999999  0.375  1.0000
  S   S23       1.0  0.6105986549999999  0.12499999999999997  0.125  1.0000
  S   S24       1.0  0.875  0.139401345  0.375  1.0000
  In  In13      1.0  0.75  0.75  0.0  1.0000
  In  In14      1.0  0.4999999999999999  0.75  0.75  1.0000
  In  In15      1.0  0.4999999999999999  0.4999999999999999  0.4999999999999999  1.0000
  In  In16      1.0  0.75  0.4999999999999999  0.25  1.0000
  Cu  Cu13      1.0  0.75  0.4999999999999999  0.75  1.0000
  Cu  Cu14      1.0  0.4999999999999999  0.4999999999999999  0.0  1.0000
  Cu  Cu15      1.0  0.4999999999999999  0.75  0.25  1.0000
  Cu  Cu16      1.0  0.75  0.75  0.4999999999999999  1.0000
  S   S25       1.0  0.639401345  0.625  0.625  1.0000
  S   S26       1.0  0.875  0.6105986549999999  0.875  1.0000
  S   S27       1.0  0.8605986549999999  0.875  0.625  1.0000
  S   S28       1.0  0.625  0.8894013449999999  0.875  1.0000
  S   S29       1.0  0.8894013449999999  0.875  0.125  1.0000
  S   S30       1.0  0.625  0.8605986549999999  0.375  1.0000
  S   S31       1.0  0.6105986549999999  0.625  0.125  1.0000
  S   S32       1.0  0.875  0.639401345  0.375  1.0000
